bench/IEEE9.raw
0, 100.00, 33, 0, 0, 60.000000
IEEE 9-BUS SYSTEM
CREATED BY LI CHANGGANG, JAN 11 2010
       1, "BUS__1__            ",    16.50,  3,    1,    1,    1,   1.040000,   0.000000, 1.1000, 0.9000, 1.1000, 0.9000, 60.0
       2, "BUS__2__            ",    18.00,  2,    2,    1,    1,   1.025000,   9.280000, 1.1000, 0.9000, 1.1000, 0.9000, 60.0
       3, "BUS__3__            ",    13.80,  2,    3,    1,    1,   1.025000,   4.664800, 1.1000, 0.9000, 1.1000, 0.9000, 60.0
       4, "BUS__4__            ",   230.00,  1,    1,    1,    1,   1.025790,  -2.216800, 1.1000, 0.9000, 1.1000, 0.9000, 60.0
       5, "BUS__5__            ",   230.00,  1,    1,    1,    1,   0.995630,  -3.988800, 1.1000, 0.9000, 1.1000, 0.9000, 60.0
       6, "BUS__6__            ",   230.00,  1,    3,    1,    1,   1.012650,  -3.687300, 1.1000, 0.9000, 1.1000, 0.9000, 60.0
       7, "BUS__7__            ",   230.00,  1,    2,    1,    1,   1.025770,   3.719700, 1.1000, 0.9000, 1.1000, 0.9000, 60.0
       8, "BUS__8__            ",   230.00,  1,    2,    1,    1,   1.015880,   0.727600, 1.1000, 0.9000, 1.1000, 0.9000, 60.0
       9, "BUS__9__            ",   230.00,  1,    3,    1,    1,   1.032350,   1.966800, 1.1000, 0.9000, 1.1000, 0.9000, 60.0
0 / END OF BUS DATA, BEGIN LOAD DATA
       5,    "1", 1,        1,        1,      125,       50,        0,        0,        0,       -0,        1,        0
       6,    "1", 1,        1,        1,       90,       30,        0,        0,        0,       -0,        1,        0
       8,    "1", 1,        1,        1,      100,       35,        0,        0,        0,       -0,        1,        0
0 / END OF LOAD DATA, BEGIN FIXED SHUNT DATA
0 / END OF FIXED SHUNT DATA, BEGIN GENERATOR DATA
       1,    "1",    71.641000,    27.046000,   999.000000,  -999.000000, 1.040000,        0,   247.5000,  0.000000,  0.150400, 0.00, 0.00, 1.00, 1,100.00,   137.000000,    60.000000, 1, 1.000000, 0, 0.000000, 0, 0.000000, 0, 0.000000, 0, 0.0, 0
       2,    "1",   163.000000,     6.654000,   999.000000,  -999.000000, 1.025000,        0,   192.0000,  0.000000,  0.230016, 0.00, 0.00, 1.00, 1,100.00,   200.000000,   100.000000, 1, 1.000000, 0, 0.000000, 0, 0.000000, 0, 0.000000, 0, 0.0, 0
       3,    "1",    85.000000,   -10.860000,   999.000000,  -999.000000, 1.025000,        0,   128.0000,  0.000000,  0.232064, 0.00, 0.00, 1.00, 1,100.00,   140.000000,    70.000000, 1, 1.000000, 0, 0.000000, 0, 0.000000, 0, 0.000000, 0, 0.0, 0
0 / END OF GENERATOR DATA, BEGIN TRANSMISSION LINE DATA
       4,        5,    "1",     0.010000,    0.085000,     0.176000,      0.000,      0.000,      0.000,     0.000000,     0.000000,     0.000000,     0.000000, 1, 1,   0.00,    1,  1.000,    0,  0.000,    0,  0.000,    0,  0.000
       4,        6,    "1",     0.017000,    0.092000,     0.158000,      0.000,      0.000,      0.000,     0.000000,     0.000000,     0.000000,     0.000000, 1, 1,   0.00,    1,  1.000,    0,  0.000,    0,  0.000,    0,  0.000
       5,        7,    "1",     0.032000,    0.161000,     0.306000,      0.000,      0.000,      0.000,     0.000000,     0.000000,     0.000000,     0.000000, 1, 1,   0.00,    1,  1.000,    0,  0.000,    0,  0.000,    0,  0.000
       6,        9,    "1",     0.039000,    0.170000,     0.358000,      0.000,      0.000,      0.000,     0.000000,     0.000000,     0.000000,     0.000000, 1, 1,   0.00,    1,  1.000,    0,  0.000,    0,  0.000,    0,  0.000
       7,        8,    "1",     0.008500,    0.072000,     0.149000,      0.000,      0.000,      0.000,     0.000000,     0.000000,     0.000000,     0.000000, 1, 1,   0.00,    1,  1.000,    0,  0.000,    0,  0.000,    0,  0.000
       8,        9,    "1",     0.011900,    0.100800,     0.209000,      0.000,      0.000,      0.000,     0.000000,     0.000000,     0.000000,     0.000000, 1, 1,   0.00,    1,  1.000,    0,  0.000,    0,  0.000,    0,  0.000
0 / END OF TRANSMISSION LINE DATA, BEGIN TRANSFORMER DATA
       4,        1,        0,    "1", 3, 2, 1, 0.000000, 0.000000, 1, "STEPUP1         ", 1, 1, 1.000000, 0, 0.000000, 0, 0.000000, 0, 0.000000, ""
          0.000000, 0.057600, 100.000000
          1.000000,  230.00,   0.00,     0.00,     0.00,     0.00, 0, 0, 1.100000, 0.900000,     1.10,     0.90,  33,   0, 0.0, 0.0, 0.0
          1.000000,   16.50
       7,        2,        0,    "1", 3, 2, 1, 0.000000, 0.000000, 1, "STEPUP2         ", 1, 1, 1.000000, 0, 0.000000, 0, 0.000000, 0, 0.000000, ""
          0.000000, 0.062500, 100.000000
          1.000000,  230.00,   0.00,     0.00,     0.00,     0.00, 0, 0, 1.100000, 0.900000,     1.10,     0.90,  33,   0, 0.0, 0.0, 0.0
          1.000000,   18.00
       9,        3,        0,    "1", 3, 2, 1, 0.000000, 0.000000, 1, "STEPUP3         ", 1, 1, 1.000000, 0, 0.000000, 0, 0.000000, 0, 0.000000, ""
          0.000000, 0.058600, 100.000000
          1.000000,  230.00,   0.00,     0.00,     0.00,     0.00, 0, 0, 1.100000, 0.900000,     1.10,     0.90,  33,   0, 0.0, 0.0, 0.0
          1.000000,   13.80
0 / END OF TRANSFORMER DATA, BEGIN AREA DATA
0 / END OF AREA DATA, BEGIN TWO-TERMINAL HVDC DATA
'0' / END OF TWO-TERMINAL HVDC DATA, BEGIN VSC HVDC LINE DATA
'0' / END OF VSC HVDC LINE DATA, BEGIN IMPEDANCE CORRECTION DATA
0 / END OF IMPEDANCE CORRECTION DATA, BEGIN MULTI-TERMINAL HVDC DATA
0 / END OF MULTI-TERMINAL HVDC DATA, BEGIN MULTI-SECTION LINE DATA
0 / END OF MULTI-SECTION LINE DATA, BEGIN ZONE DATA
0 / END OF ZONE DATA, BEGIN INTER-AREA TRANSFER DATA
0 / END OF INTER-AREA TRANSFER DATA, BEGIN OWNER DATA
0 / END OF OWNER DATA, BEGIN FACTS DEVICE DATA
0 / END OF FACTS DEVICE DATA, BEGIN SWITCHED SHUNT DATA
0 / END OF SWITCHED SHUNT DATA, BEGIN GNE DATA
0 / END OF GNE DATA, BEGIN INDUCTION MACHINE DATA
0 / END OF INDUCTION MACHINE DATA
Q